Circuit: * C:\Users\camer\Downloads\Ass4\E344_23782684_A4\LTSpice4a\E344_23782684_A4a.asc

V3: Removing PWL point (0.06,0.5)
WARNING: Less than two connections to node 5V.  This node is used by RSENSE5V.
Direct Newton iteration failed to find .op point.  (Use ".option noopiter" to skip.)
Starting Gmin stepping
Gmin = 10
Gmin = 1.07374
Gmin = 0.115292
Gmin = 0.0123794
Gmin = 0.00132923
vernier = 0.5
vernier = 0.25
vernier = 0.125
vernier = 0.0625
Gmin = 0.00100083
vernier = 0.03125
vernier = 0.015625
vernier = 0.0078125
vernier = 0.00390625
vernier = 0.00195313
Gmin = 0.00100083
vernier = 0.000976563
vernier = 0.000488281
Gmin = 0
Gmin stepping failed

Starting source stepping with srcstepmethod=0
Source Step = 3.0303%
vernier = 0.25
Source Step = 1.70455%
Source Step = 3.59848%
Source Step = 5.49242%
Source Step = 7.38636%
Source Step = 9.2803%
vernier = 0.09375
Source Step = 11.9318%
Source Step = 14.7727%
Source Step = 17.6136%
Source Step = 20.4545%
Source Step = 23.2955%
vernier = 0.140625
Source Step = 27.1307%
Source Step = 31.392%
Source Step = 35.6534%
Source Step = 39.9148%
Source Step = 44.1761%
vernier = 0.210938
Source Step = 49.7159%
Source Step = 56.108%
Source Step = 62.5%
Source Step = 68.892%
Source Step = 75.2841%
vernier = 0.316406
Source Step = 83.2741%
Source Step = 83.2966%
Source Step = 83.3341%
Source Step = 83.3715%
Source Step = 83.409%
Source Step = 83.4464%
vernier = 0.00185394
Source Step = 83.4858%
Source Step = 83.5419%
Source Step = 83.5981%
Source Step = 83.6543%
Source Step = 83.7105%
Source Step = 83.7667%
vernier = 0.00278091
Source Step = 83.8509%
Source Step = 83.9352%
Source Step = 84.0195%
Source Step = 84.1037%
Source Step = 84.188%
vernier = 0.00417137
Source Step = 84.3102%
Source Step = 84.4366%
Source Step = 84.563%
Source Step = 84.6894%
Source Step = 84.8158%
vernier = 0.00625706
Source Step = 84.9928%
Source Step = 85.1824%
Source Step = 85.372%
Source Step = 85.5616%
Source Step = 85.7512%
vernier = 0.00938559
Source Step = 86.0072%
Source Step = 86.2916%
Source Step = 86.576%
Source Step = 86.8604%
Source Step = 87.1448%
vernier = 0.0140784
Source Step = 87.5146%
Source Step = 87.9412%
Source Step = 88.3678%
Source Step = 88.7944%
Source Step = 89.221%
vernier = 0.0211176
Source Step = 89.7543%
Source Step = 90.0863%
Source Step = 90.1263%
Source Step = 90.1663%
Source Step = 90.2063%
Source Step = 90.2463%
Source Step = 90.2863%
Source Step = 90.3263%
Source Step = 90.3662%
Source Step = 90.4062%
Source Step = 90.4462%
Source Step = 90.4862%
Source Step = 90.5262%
Source Step = 90.5662%
Source Step = 90.6062%
Source Step = 90.6462%
Source Step = 90.6862%
Source Step = 90.7262%
vernier = 0.00197977
Source Step = 90.7742%
Source Step = 90.8342%
Source Step = 90.8942%
Source Step = 90.9542%
Source Step = 91.0142%
vernier = 0.00296966
Source Step = 91.0832%
Source Step = 91.1732%
Source Step = 91.2631%
Source Step = 91.3531%
Source Step = 91.4431%
vernier = 0.00445449
Source Step = 91.5421%
Source Step = 91.6771%
Source Step = 91.8121%
Source Step = 91.9471%
Source Step = 92.082%
vernier = 0.00668173
Source Step = 92.2238%
Source Step = 92.4263%
Source Step = 92.6287%
Source Step = 92.8312%
Source Step = 93.0337%
Source Step = 93.2362%
vernier = 0.0100226
Source Step = 93.5399%
Source Step = 93.8436%
Source Step = 94.1473%
Source Step = 94.451%
Source Step = 94.7547%
vernier = 0.0150339
Source Step = 95.1951%
Source Step = 95.6507%
Source Step = 96.1063%
Source Step = 96.5618%
Source Step = 97.0174%
vernier = 0.0225508
Source Step = 97.6552%
Source Step = 98.3386%
Source Step = 99.0219%
Source Step = 99.7053%
Source Step = 99.7779%
Source Step = 99.8206%
Source Step = 99.8633%
Source Step = 99.906%
Source Step = 99.9487%
Source Step = 99.9915%
Source Step = 100%
Source Step = 100%
Source stepping succeeded in finding the operating point.


Date: Sun Aug 21 18:03:27 2022
Total elapsed time: 1.938 seconds.

tnom = 27
temp = 27
method = modified trap
totiter = 25125
traniter = 9279
tranpoints = 2536
accept = 2154
rejected = 382
matrix size = 140
fillins = 275
solver = Normal
Thread vector: 4.2/3.2[3] 1.4/1.0[3] 1.7/0.8[3] 0.4/1.1[1]  2592/500
Matrix Compiler1: 25.92 KB object code size  4.2/2.1/[0.9]
Matrix Compiler2: 16.23 KB object code size  1.4/1.9/[0.5]

