Circuit: * C:\EDesign344\GitRepo\LTSpice\E344_23782684_A4\LTSpice4a\E344_23782684_A4a.asc

V3: Removing PWL point (0.06,0.5)
WARNING: Less than two connections to node 5V.  This node is used by RSENSE5V.
Direct Newton iteration failed to find .op point.  (Use ".option noopiter" to skip.)
Starting Gmin stepping
Gmin = 10
Gmin = 1.07374
Gmin = 0.115292
Gmin = 0.0123794
Gmin = 0.00132923
vernier = 0.5
vernier = 0.25
vernier = 0.125
vernier = 0.0625
Gmin = 0.00100083
vernier = 0.03125
vernier = 0.015625
vernier = 0.0078125
vernier = 0.00390625
vernier = 0.00195313
Gmin = 0.00100083
vernier = 0.000976563
vernier = 0.000488281
Gmin = 0
Gmin stepping failed

Starting source stepping with srcstepmethod=0
Source Step = 3.0303%
vernier = 0.25
Source Step = 1.70455%
Source Step = 3.59848%
Source Step = 5.49242%
Source Step = 7.38636%
Source Step = 9.2803%
vernier = 0.09375
Source Step = 11.9318%
Source Step = 14.7727%
Source Step = 17.6136%
Source Step = 20.4545%
Source Step = 23.2955%
vernier = 0.140625
Source Step = 27.1307%
Source Step = 31.392%
Source Step = 35.6534%
Source Step = 39.9148%
Source Step = 44.1761%
vernier = 0.210938
Source Step = 49.7159%
Source Step = 56.108%
Source Step = 62.5%
Source Step = 68.892%
Source Step = 75.2841%
vernier = 0.316406
Source Step = 83.2741%
Source Step = 84.2517%
Starting source stepping with srcstepmethod=1
Source Step = 3.0303%
Source Step = 33.3333%
Source Step = 63.6364%
Source Step = 93.9394%
Source Step = 96.9815%
Source stepping failed

Pseudo Transient succeeded in finding the operating point at 284.232 ms.

Date: Fri Aug 26 21:33:25 2022
Total elapsed time: 1.302 seconds.

tnom = 27
temp = 27
method = modified trap
totiter = 13160
traniter = 3129
tranpoints = 1403
accept = 1310
rejected = 113
matrix size = 140
fillins = 306
solver = Normal
Thread vector: 6.8/4.5[3] 1.7/1.0[3] 2.7/0.9[2] 1.4/4.2[1]  2592/500
Matrix Compiler1: 27.68 KB object code size  6.1/2.6/[1.2]
Matrix Compiler2: 16.74 KB object code size  3.7/5.4/[1.5]

