Circuit: * C:\Users\camer\Downloads\A1_LTSpiceTemplate\A1_LTSpiceTemplate\E344_Ass1_CurrSense.asc

Direct Newton iteration for .op point succeeded.

Date: Sun Jul 24 20:45:57 2022
Total elapsed time: 0.188 seconds.

tnom = 27
temp = 27
method = modified trap
totiter = 37029
traniter = 36993
tranpoints = 16287
accept = 10756
rejected = 5531
matrix size = 18
fillins = 12
solver = Normal
Matrix Compiler1: 1.73 KB object code size  0.3/0.2/[0.1]
Matrix Compiler2: off  [0.1]/0.2/0.2

