Circuit: * C:\EDesign344\GitRepo\LTSpice\E344_23782684_A6\Ass6bLTspiceTemplate\E344_23782684_A6b.asc

Direct Newton iteration failed to find .op point.  (Use ".option noopiter" to skip.)
Starting Gmin stepping
Gmin = 10
Gmin = 1.07374
Gmin = 0.115292
Gmin = 0.0123794
Gmin = 0.00132923
Gmin = 0.000142725
Gmin = 1.5325e-005
Gmin = 1.6455e-006
Gmin = 1.76685e-007
vernier = 0.5
vernier = 0.25
vernier = 0.125
Gmin = 4.63168e-008
vernier = 0.0625
vernier = 0.03125
vernier = 0.015625
vernier = 0.0078125
vernier = 0.00390625
vernier = 0.00195313
vernier = 0.000976563
vernier = 0.000488281
Gmin = 0
Gmin stepping failed

Starting source stepping with srcstepmethod=0
Source Step = 3.0303%
vernier = 0.25
Source Step = 7.57576%
Source Step = 15.1515%
Source Step = 22.7273%
Source Step = 30.303%
Source Step = 37.8788%
vernier = 0.375
Source Step = 48.8636%
Source Step = 60.2273%
Source Step = 71.5909%
Source Step = 82.9545%
Source Step = 94.3182%
vernier = 0.5625
Source stepping succeeded in finding the operating point.


Date: Tue Sep 20 19:44:26 2022
Total elapsed time: 0.259 seconds.

tnom = 27
temp = 27
method = modified trap
totiter = 8408
traniter = 5615
tranpoints = 2496
accept = 2369
rejected = 127
matrix size = 56
fillins = 60
solver = Normal
Matrix Compiler1: 8.64 KB object code size  1.0/0.5/[0.3]
Matrix Compiler2: off  [0.4]/0.6/0.5

